*SPEF "ieee 1481-1999"
*DESIGN "uart_top"
*DATE "06:43:16 Sunday May 17, 2026"
*VENDOR "The OpenROAD Project"
*PROGRAM "OpenROAD"
*VERSION "26Q1-2900-gdf79404cd8"
*DESIGN_FLOW "NAME_SCOPE LOCAL" "PIN_CAP NONE"
*DIVIDER /
*DELIMITER :
*BUS_DELIMITER []
*T_UNIT 1 NS
*C_UNIT 1 PF
*R_UNIT 1 OHM
*L_UNIT 1 HENRY

*NAME_MAP
*1 BAUD_GEN\.baud_tick
*2 BAUD_GEN\.count\[0\]
*3 BAUD_GEN\.count\[10\]
*4 BAUD_GEN\.count\[11\]
*5 BAUD_GEN\.count\[12\]
*6 BAUD_GEN\.count\[13\]
*7 BAUD_GEN\.count\[1\]
*8 BAUD_GEN\.count\[2\]
*9 BAUD_GEN\.count\[3\]
*10 BAUD_GEN\.count\[4\]
*11 BAUD_GEN\.count\[5\]
*12 BAUD_GEN\.count\[6\]
*13 BAUD_GEN\.count\[7\]
*14 BAUD_GEN\.count\[8\]
*15 BAUD_GEN\.count\[9\]
*16 BAUD_GEN\.half_baud
*17 UART_RX\.bit_index\[0\]
*18 UART_RX\.bit_index\[1\]
*19 UART_RX\.bit_index\[2\]
*20 UART_RX\.first_tick
*21 UART_RX\.rx
*22 UART_RX\.rx_prev
*23 UART_RX\.rx_sync1
*24 UART_RX\.rx_sync2
*25 UART_RX\.state\[0\]
*26 UART_RX\.state\[1\]
*27 UART_RX\.state\[2\]
*28 UART_RX\.state\[3\]
*29 UART_TX\.bit_index\[0\]
*30 UART_TX\.bit_index\[1\]
*31 UART_TX\.bit_index\[2\]
*32 UART_TX\.data_reg\[0\]
*33 UART_TX\.data_reg\[1\]
*34 UART_TX\.data_reg\[2\]
*35 UART_TX\.data_reg\[3\]
*36 UART_TX\.data_reg\[4\]
*37 UART_TX\.data_reg\[5\]
*38 UART_TX\.data_reg\[6\]
*39 UART_TX\.data_reg\[7\]
*40 UART_TX\.state\[0\]
*41 UART_TX\.state\[1\]
*42 UART_TX\.state\[2\]
*43 UART_TX\.state\[3\]
*44 _000_
*45 _001_
*46 _002_
*47 _003_
*48 _004_
*49 _005_
*50 _006_
*51 _007_
*52 _008_
*53 _009_
*54 _010_
*55 _011_
*56 _012_
*57 _013_
*58 _014_
*59 _015_
*60 _016_
*61 _017_
*62 _018_
*63 _019_
*64 _020_
*65 _021_
*66 _022_
*67 _023_
*68 _024_
*69 _025_
*70 _026_
*71 _027_
*72 _028_
*73 _029_
*74 _030_
*75 _031_
*76 _032_
*77 _033_
*78 _034_
*79 _035_
*80 _036_
*81 _037_
*82 _038_
*83 _039_
*84 _040_
*85 _041_
*86 _042_
*87 _043_
*88 _044_
*89 _045_
*90 _046_
*91 _047_
*92 _048_
*93 _049_
*94 _050_
*95 _051_
*96 _052_
*97 _053_
*98 _054_
*99 _055_
*100 _056_
*101 _057_
*102 _058_
*103 _059_
*104 _060_
*105 _061_
*106 _062_
*107 _063_
*108 _064_
*109 _065_
*110 _066_
*111 _067_
*112 _068_
*113 _069_
*114 _070_
*115 _071_
*116 _072_
*117 _073_
*118 _074_
*119 _075_
*120 _076_
*121 _077_
*122 _078_
*123 _079_
*124 _080_
*125 _081_
*126 _082_
*127 _083_
*128 _084_
*129 _085_
*130 tx_data[1]
*131 _087_
*132 tx_data[0]
*133 _089_
*134 _090_
*135 _091_
*136 _092_
*137 _093_
*138 _094_
*139 _095_
*140 _096_
*141 _097_
*142 rst_n
*143 _099_
*144 _100_
*145 _101_
*146 _102_
*147 _103_
*148 _104_
*149 _105_
*150 _106_
*151 _107_
*152 _108_
*153 _109_
*154 _110_
*155 _111_
*156 _112_
*157 _113_
*158 _114_
*159 _115_
*160 _116_
*161 _117_
*162 _118_
*163 _119_
*164 _120_
*165 _121_
*166 _122_
*167 _123_
*168 _124_
*169 _125_
*170 _126_
*171 _127_
*172 _128_
*173 _129_
*174 _130_
*175 _131_
*176 _132_
*177 _133_
*178 _134_
*179 _135_
*180 _136_
*181 _137_
*182 _138_
*183 _139_
*184 _140_
*185 _141_
*186 _142_
*187 _143_
*188 _144_
*189 _145_
*190 _146_
*191 _147_
*192 _148_
*193 _149_
*194 _150_
*195 _151_
*196 _152_
*197 _153_
*198 _154_
*199 _155_
*200 clk
*201 net1
*202 net11
*203 net12
*204 net13
*205 net14
*206 net15
*207 net16
*208 net17
*209 net18
*210 net19
*211 net20
*212 net2
*213 net3
*214 net4
*215 net5
*216 net6
*217 net7
*218 net8
*219 net9
*220 net10
*223 tx_data[2]
*224 tx_data[3]
*225 tx_data[4]
*226 tx_data[5]
*227 tx_data[6]
*228 tx_data[7]
*229 tx_start
*230 rx_data[0]
*231 rx_data[1]
*232 rx_data[2]
*233 rx_data[3]
*234 rx_data[4]
*235 rx_data[5]
*236 rx_data[6]
*237 rx_data[7]
*238 rx_done
*239 tx_busy
*240 clknet_0_clk
*241 net22
*242 clknet_2_0__leaf_clk
*243 clknet_2_1__leaf_clk
*244 clknet_2_2__leaf_clk
*245 clknet_2_3__leaf_clk
*246 BAUD_GEN\.baud_tick\$_DFF_PN0_
*247 BAUD_GEN\.count\[0\]\$_DFF_PN0_
*248 BAUD_GEN\.count\[10\]\$_DFF_PN0_
*249 BAUD_GEN\.count\[11\]\$_DFF_PN0_
*250 BAUD_GEN\.count\[12\]\$_DFF_PN0_
*251 BAUD_GEN\.count\[13\]\$_DFF_PN0_
*252 BAUD_GEN\.count\[1\]\$_DFF_PN0_
*253 BAUD_GEN\.count\[2\]\$_DFF_PN0_
*254 BAUD_GEN\.count\[3\]\$_DFF_PN0_
*255 BAUD_GEN\.count\[4\]\$_DFF_PN0_
*256 BAUD_GEN\.count\[5\]\$_DFF_PN0_
*257 BAUD_GEN\.count\[6\]\$_DFF_PN0_
*258 BAUD_GEN\.count\[7\]\$_DFF_PN0_
*259 BAUD_GEN\.count\[8\]\$_DFF_PN0_
*260 BAUD_GEN\.count\[9\]\$_DFF_PN0_
*261 BAUD_GEN\.half_baud\$_DFF_PN0_
*262 UART_RX\.bit_index\[0\]\$_DFFE_PN0P_
*263 UART_RX\.bit_index\[1\]\$_DFFE_PN0P_
*264 UART_RX\.bit_index\[2\]\$_DFFE_PN0P_
*265 UART_RX\.data\[0\]\$_DFFE_PN0P_
*266 UART_RX\.data\[1\]\$_DFFE_PN0P_
*267 UART_RX\.data\[2\]\$_DFFE_PN0P_
*268 UART_RX\.data\[3\]\$_DFFE_PN0P_
*269 UART_RX\.data\[4\]\$_DFFE_PN0P_
*270 UART_RX\.data\[5\]\$_DFFE_PN0P_
*271 UART_RX\.data\[6\]\$_DFFE_PN0P_
*272 UART_RX\.data\[7\]\$_DFFE_PN0P_
*273 UART_RX\.first_tick\$_DFFE_PN0P_
*274 UART_RX\.rx_done\$_DFF_PN0_
*275 UART_RX\.rx_prev\$_DFF_PN1_
*276 UART_RX\.rx_sync1\$_DFF_PN1_
*277 UART_RX\.rx_sync2\$_DFF_PN1_
*278 UART_RX\.state\[0\]\$_DFF_PN1_
*279 UART_RX\.state\[1\]\$_DFF_PN0_
*280 UART_RX\.state\[2\]\$_DFF_PN0_
*281 UART_RX\.state\[3\]\$_DFF_PN0_
*282 UART_TX\.bit_index\[0\]\$_DFFE_PN0P_
*283 UART_TX\.bit_index\[1\]\$_DFFE_PN0P_
*284 UART_TX\.bit_index\[2\]\$_DFFE_PN0P_
*285 UART_TX\.data_reg\[0\]\$_DFFE_PP_
*286 UART_TX\.data_reg\[1\]\$_DFFE_PP_
*287 UART_TX\.data_reg\[2\]\$_DFFE_PP_
*288 UART_TX\.data_reg\[3\]\$_DFFE_PP_
*289 UART_TX\.data_reg\[4\]\$_DFFE_PP_
*290 UART_TX\.data_reg\[5\]\$_DFFE_PP_
*291 UART_TX\.data_reg\[6\]\$_DFFE_PP_
*292 UART_TX\.data_reg\[7\]\$_DFFE_PP_
*293 UART_TX\.state\[0\]\$_DFF_PN1_
*294 UART_TX\.state\[1\]\$_DFF_PN0_
*295 UART_TX\.state\[2\]\$_DFF_PN0_
*296 UART_TX\.state\[3\]\$_DFF_PN0_
*297 UART_TX\.tx\$_DFFE_PN1P_
*298 UART_TX\.tx_busy\$_DFFE_PN0P_
*299 _156_
*300 _157_
*301 _158_
*302 _159_
*303 _160_
*304 _161_
*305 _162_
*306 _163_
*307 _164_
*308 _165_
*309 _166_
*310 _167_
*311 _168_
*312 _169_
*313 _170_
*314 _171_
*315 _172_
*316 _173_
*317 _174_
*318 _175_
*319 _176_
*320 _177_
*321 _178_
*322 _179_
*323 _180_
*324 _181_
*325 _182_
*326 _183_
*327 _184_
*328 _185_
*329 _186_
*330 _187_
*331 _188_
*332 _189_
*333 _190_
*334 _191_
*335 _192_
*336 _193_
*337 _194_
*338 _195_
*339 _196_
*340 _197_
*341 _198_
*342 input3
*343 _200_
*344 _201_
*345 input2
*346 _203_
*347 _204_
*348 _205_
*349 _206_
*350 _207_
*351 _208_
*352 _209_
*353 _210_
*354 _211_
*355 _212_
*356 _213_
*357 _214_
*358 _215_
*359 input1
*360 _217_
*361 _218_
*362 _219_
*363 _220_
*364 _221_
*365 _222_
*366 _223_
*367 _224_
*368 _225_
*369 _226_
*370 _227_
*371 _228_
*372 _229_
*373 _230_
*374 _231_
*375 _232_
*376 _233_
*377 _234_
*378 _235_
*379 _236_
*380 _237_
*381 _238_
*382 _239_
*383 _240_
*384 _241_
*385 _242_
*386 _243_
*387 _244_
*388 _245_
*389 _246_
*390 _247_
*391 _248_
*392 _249_
*393 _250_
*394 _251_
*395 _252_
*396 _253_
*397 _254_
*398 _255_
*399 _256_
*400 _257_
*401 _258_
*402 _259_
*403 _260_
*404 _261_
*405 _262_
*406 _263_
*407 _264_
*408 _265_
*409 _266_
*410 _267_
*411 _268_
*412 _269_
*413 _270_
*414 _271_
*415 _272_
*416 _273_
*417 _274_
*418 _275_
*419 _276_
*420 _277_
*421 _278_
*422 _279_
*423 _280_
*424 _281_
*425 _282_
*426 _283_
*427 _284_
*428 _285_
*429 _286_
*430 _287_
*431 _288_
*432 _289_
*433 _290_
*434 _291_
*435 _292_
*436 _293_
*437 _294_
*438 _295_
*439 _296_
*440 _297_
*441 _298_
*442 _299_
*443 _300_
*444 _301_
*445 TAP_TAPCELL_ROW_0_0
*446 TAP_TAPCELL_ROW_0_1
*447 TAP_TAPCELL_ROW_0_2
*448 TAP_TAPCELL_ROW_0_3
*449 TAP_TAPCELL_ROW_0_4
*450 TAP_TAPCELL_ROW_1_5
*451 TAP_TAPCELL_ROW_1_6
*452 TAP_TAPCELL_ROW_2_7
*453 TAP_TAPCELL_ROW_2_8
*454 TAP_TAPCELL_ROW_2_9
*455 TAP_TAPCELL_ROW_3_10
*456 TAP_TAPCELL_ROW_3_11
*457 TAP_TAPCELL_ROW_4_12
*458 TAP_TAPCELL_ROW_4_13
*459 TAP_TAPCELL_ROW_4_14
*460 TAP_TAPCELL_ROW_5_15
*461 TAP_TAPCELL_ROW_5_16
*462 TAP_TAPCELL_ROW_6_17
*463 TAP_TAPCELL_ROW_6_18
*464 TAP_TAPCELL_ROW_6_19
*465 TAP_TAPCELL_ROW_7_20
*466 TAP_TAPCELL_ROW_7_21
*467 TAP_TAPCELL_ROW_8_22
*468 TAP_TAPCELL_ROW_8_23
*469 TAP_TAPCELL_ROW_8_24
*470 TAP_TAPCELL_ROW_9_25
*471 TAP_TAPCELL_ROW_9_26
*472 TAP_TAPCELL_ROW_10_27
*473 TAP_TAPCELL_ROW_10_28
*474 TAP_TAPCELL_ROW_10_29
*475 TAP_TAPCELL_ROW_11_30
*476 TAP_TAPCELL_ROW_11_31
*477 TAP_TAPCELL_ROW_12_32
*478 TAP_TAPCELL_ROW_12_33
*479 TAP_TAPCELL_ROW_12_34
*480 TAP_TAPCELL_ROW_13_35
*481 TAP_TAPCELL_ROW_13_36
*482 TAP_TAPCELL_ROW_14_37
*483 TAP_TAPCELL_ROW_14_38
*484 TAP_TAPCELL_ROW_14_39
*485 TAP_TAPCELL_ROW_15_40
*486 TAP_TAPCELL_ROW_15_41
*487 TAP_TAPCELL_ROW_16_42
*488 TAP_TAPCELL_ROW_16_43
*489 TAP_TAPCELL_ROW_16_44
*490 TAP_TAPCELL_ROW_17_45
*491 TAP_TAPCELL_ROW_17_46
*492 TAP_TAPCELL_ROW_18_47
*493 TAP_TAPCELL_ROW_18_48
*494 TAP_TAPCELL_ROW_18_49
*495 TAP_TAPCELL_ROW_19_50
*496 TAP_TAPCELL_ROW_19_51
*497 TAP_TAPCELL_ROW_20_52
*498 TAP_TAPCELL_ROW_20_53
*499 TAP_TAPCELL_ROW_20_54
*500 TAP_TAPCELL_ROW_21_55
*501 TAP_TAPCELL_ROW_21_56
*502 TAP_TAPCELL_ROW_22_57
*503 TAP_TAPCELL_ROW_22_58
*504 TAP_TAPCELL_ROW_22_59
*505 TAP_TAPCELL_ROW_23_60
*506 TAP_TAPCELL_ROW_23_61
*507 TAP_TAPCELL_ROW_24_62
*508 TAP_TAPCELL_ROW_24_63
*509 TAP_TAPCELL_ROW_24_64
*510 TAP_TAPCELL_ROW_25_65
*511 TAP_TAPCELL_ROW_25_66
*512 TAP_TAPCELL_ROW_26_67
*513 TAP_TAPCELL_ROW_26_68
*514 TAP_TAPCELL_ROW_26_69
*515 TAP_TAPCELL_ROW_27_70
*516 TAP_TAPCELL_ROW_27_71
*517 TAP_TAPCELL_ROW_28_72
*518 TAP_TAPCELL_ROW_28_73
*519 TAP_TAPCELL_ROW_28_74
*520 TAP_TAPCELL_ROW_28_75
*521 TAP_TAPCELL_ROW_28_76
*522 input4
*523 input5
*524 input6
*525 input7
*526 input8
*527 input9
*528 input10
*529 output11
*530 output12
*531 output13
*532 output14
*533 output15
*534 output16
*535 output17
*536 output18
*537 output19
*538 output20
*539 clkbuf_0_clk
*540 place22
*541 clkbuf_2_0__f_clk
*542 clkbuf_2_1__f_clk
*543 clkbuf_2_2__f_clk
*544 clkbuf_2_3__f_clk
*545 clkload0
*546 clkload1
*547 clkload2
*548 FILLER_0_0
*549 FILLER_0_8
*550 FILLER_0_16
*551 FILLER_0_24
*552 FILLER_0_28
*553 FILLER_0_31
*554 FILLER_0_39
*555 FILLER_0_47
*556 FILLER_0_55
*557 FILLER_0_59
*558 FILLER_0_61
*559 FILLER_0_69
*560 FILLER_0_77
*561 FILLER_0_85
*562 FILLER_0_89
*563 FILLER_0_91
*564 FILLER_0_99
*565 FILLER_0_107
*566 FILLER_0_115
*567 FILLER_0_119
*568 FILLER_0_121
*569 FILLER_0_129
*570 FILLER_0_137
*571 FILLER_0_145
*572 FILLER_0_149
*573 FILLER_0_151
*574 FILLER_0_159
*575 FILLER_0_167
*576 FILLER_0_171
*577 FILLER_1_0
*578 FILLER_1_8
*579 FILLER_1_16
*580 FILLER_1_24
*581 FILLER_1_32
*582 FILLER_1_40
*583 FILLER_1_48
*584 FILLER_1_56
*585 FILLER_1_61
*586 FILLER_1_69
*587 FILLER_1_77
*588 FILLER_1_85
*589 FILLER_1_93
*590 FILLER_1_101
*591 FILLER_1_109
*592 FILLER_1_117
*593 FILLER_1_119
*594 FILLER_1_121
*595 FILLER_1_129
*596 FILLER_1_137
*597 FILLER_1_145
*598 FILLER_1_153
*599 FILLER_1_161
*600 FILLER_1_169
*601 FILLER_2_0
*602 FILLER_2_8
*603 FILLER_2_16
*604 FILLER_2_24
*605 FILLER_2_28
*606 FILLER_2_31
*607 FILLER_2_39
*608 FILLER_2_47
*609 FILLER_2_55
*610 FILLER_2_63
*611 FILLER_2_71
*612 FILLER_2_79
*613 FILLER_2_87
*614 FILLER_2_89
*615 FILLER_2_91
*616 FILLER_2_99
*617 FILLER_2_107
*618 FILLER_2_115
*619 FILLER_2_123
*620 FILLER_2_131
*621 FILLER_2_139
*622 FILLER_2_147
*623 FILLER_2_149
*624 FILLER_2_151
*625 FILLER_2_159
*626 FILLER_2_167
*627 FILLER_2_171
*628 FILLER_3_0
*629 FILLER_3_8
*630 FILLER_3_16
*631 FILLER_3_24
*632 FILLER_3_32
*633 FILLER_3_40
*634 FILLER_3_48
*635 FILLER_3_56
*636 FILLER_3_61
*637 FILLER_3_69
*638 FILLER_3_77
*639 FILLER_3_85
*640 FILLER_3_93
*641 FILLER_3_101
*642 FILLER_3_109
*643 FILLER_3_117
*644 FILLER_3_119
*645 FILLER_3_121
*646 FILLER_3_129
*647 FILLER_3_137
*648 FILLER_3_145
*649 FILLER_3_153
*650 FILLER_3_161
*651 FILLER_3_169
*652 FILLER_4_0
*653 FILLER_4_8
*654 FILLER_4_31
*655 FILLER_4_66
*656 FILLER_4_74
*657 FILLER_4_82
*658 FILLER_4_91
*659 FILLER_4_99
*660 FILLER_4_107
*661 FILLER_4_115
*662 FILLER_4_123
*663 FILLER_4_131
*664 FILLER_4_139
*665 FILLER_4_147
*666 FILLER_4_149
*667 FILLER_4_151
*668 FILLER_4_159
*669 FILLER_4_161
*670 FILLER_4_172
*671 FILLER_5_0
*672 FILLER_5_8
*673 FILLER_5_16
*674 FILLER_5_24
*675 FILLER_5_38
*676 FILLER_5_61
*677 FILLER_5_69
*678 FILLER_5_77
*679 FILLER_5_85
*680 FILLER_5_93
*681 FILLER_5_101
*682 FILLER_5_109
*683 FILLER_5_117
*684 FILLER_5_119
*685 FILLER_5_121
*686 FILLER_5_129
*687 FILLER_5_137
*688 FILLER_5_145
*689 FILLER_5_153
*690 FILLER_5_161
*691 FILLER_5_169
*692 FILLER_6_0
*693 FILLER_6_8
*694 FILLER_6_31
*695 FILLER_6_35
*696 FILLER_6_37
*697 FILLER_6_43
*698 FILLER_6_52
*699 FILLER_6_60
*700 FILLER_6_68
*701 FILLER_6_76
*702 FILLER_6_84
*703 FILLER_6_88
*704 FILLER_6_91
*705 FILLER_6_99
*706 FILLER_6_107
*707 FILLER_6_131
*708 FILLER_6_139
*709 FILLER_6_147
*710 FILLER_6_149
*711 FILLER_6_151
*712 FILLER_6_159
*713 FILLER_6_167
*714 FILLER_6_171
*715 FILLER_7_20
*716 FILLER_7_27
*717 FILLER_7_29
*718 FILLER_7_43
*719 FILLER_7_47
*720 FILLER_7_53
*721 FILLER_7_57
*722 FILLER_7_59
*723 FILLER_7_88
*724 FILLER_7_96
*725 FILLER_7_104
*726 FILLER_7_112
*727 FILLER_7_121
*728 FILLER_7_129
*729 FILLER_7_137
*730 FILLER_7_145
*731 FILLER_7_153
*732 FILLER_7_161
*733 FILLER_7_169
*734 FILLER_8_0
*735 FILLER_8_8
*736 FILLER_8_12
*737 FILLER_8_14
*738 FILLER_8_28
*739 FILLER_8_31
*740 FILLER_8_38
*741 FILLER_8_44
*742 FILLER_8_52
*743 FILLER_8_63
*744 FILLER_8_67
*745 FILLER_8_69
*746 FILLER_8_91
*747 FILLER_8_95
*748 FILLER_8_97
*749 FILLER_8_108
*750 FILLER_8_112
*751 FILLER_8_133
*752 FILLER_8_141
*753 FILLER_8_149
*754 FILLER_8_151
*755 FILLER_8_159
*756 FILLER_8_167
*757 FILLER_8_171
*758 FILLER_9_0
*759 FILLER_9_8
*760 FILLER_9_19
*761 FILLER_9_21
*762 FILLER_9_41
*763 FILLER_9_50
*764 FILLER_9_54
*765 FILLER_9_61
*766 FILLER_9_67
*767 FILLER_9_75
*768 FILLER_9_83
*769 FILLER_9_104
*770 FILLER_9_108
*771 FILLER_9_110
*772 FILLER_9_119
*773 FILLER_9_131
*774 FILLER_9_171
*775 FILLER_10_0
*776 FILLER_10_8
*777 FILLER_10_31
*778 FILLER_10_39
*779 FILLER_10_47
*780 FILLER_10_51
*781 FILLER_10_59
*782 FILLER_10_67
*783 FILLER_10_75
*784 FILLER_10_83
*785 FILLER_10_87
*786 FILLER_10_89
*787 FILLER_10_91
*788 FILLER_10_99
*789 FILLER_10_122
*790 FILLER_10_127
*791 FILLER_10_131
*792 FILLER_10_136
*793 FILLER_10_144
*794 FILLER_10_148
*795 FILLER_10_151
*796 FILLER_10_159
*797 FILLER_10_169
*798 FILLER_11_0
*799 FILLER_11_8
*800 FILLER_11_16
*801 FILLER_11_25
*802 FILLER_11_39
*803 FILLER_11_46
*804 FILLER_11_55
*805 FILLER_11_59
*806 FILLER_11_65
*807 FILLER_11_73
*808 FILLER_11_77
*809 FILLER_11_98
*810 FILLER_11_104
*811 FILLER_11_108
*812 FILLER_11_121
*813 FILLER_11_140
*814 FILLER_11_168
*815 FILLER_11_172
*816 FILLER_12_0
*817 FILLER_12_25
*818 FILLER_12_29
*819 FILLER_12_31
*820 FILLER_12_40
*821 FILLER_12_49
*822 FILLER_12_54
*823 FILLER_12_88
*824 FILLER_12_91
*825 FILLER_12_95
*826 FILLER_12_97
*827 FILLER_12_114
*828 FILLER_12_122
*829 FILLER_12_133
*830 FILLER_12_137
*831 FILLER_12_149
*832 FILLER_12_171
*833 FILLER_13_0
*834 FILLER_13_8
*835 FILLER_13_22
*836 FILLER_13_31
*837 FILLER_13_35
*838 FILLER_13_37
*839 FILLER_13_49
*840 FILLER_13_57
*841 FILLER_13_59
*842 FILLER_13_61
*843 FILLER_13_69
*844 FILLER_13_91
*845 FILLER_13_95
*846 FILLER_13_100
*847 FILLER_13_117
*848 FILLER_13_119
*849 FILLER_13_147
*850 FILLER_13_155
*851 FILLER_13_159
*852 FILLER_13_169
*853 FILLER_14_23
*854 FILLER_14_27
*855 FILLER_14_29
*856 FILLER_14_31
*857 FILLER_14_35
*858 FILLER_14_37
*859 FILLER_14_44
*860 FILLER_14_52
*861 FILLER_14_60
*862 FILLER_14_68
*863 FILLER_14_76
*864 FILLER_14_96
*865 FILLER_14_130
*866 FILLER_14_134
*867 FILLER_14_145
*868 FILLER_14_149
*869 FILLER_14_151
*870 FILLER_14_159
*871 FILLER_14_169
*872 FILLER_15_0
*873 FILLER_15_8
*874 FILLER_15_16
*875 FILLER_15_20
*876 FILLER_15_31
*877 FILLER_15_59
*878 FILLER_15_61
*879 FILLER_15_63
*880 FILLER_15_84
*881 FILLER_15_114
*882 FILLER_15_118
*883 FILLER_15_137
*884 FILLER_15_142
*885 FILLER_15_150
*886 FILLER_15_171
*887 FILLER_16_0
*888 FILLER_16_24
*889 FILLER_16_41
*890 FILLER_16_49
*891 FILLER_16_57
*892 FILLER_16_65
*893 FILLER_16_88
*894 FILLER_16_111
*895 FILLER_16_119
*896 FILLER_16_127
*897 FILLER_16_148
*898 FILLER_16_151
*899 FILLER_16_159
*900 FILLER_16_167
*901 FILLER_16_171
*902 FILLER_17_0
*903 FILLER_17_8
*904 FILLER_17_16
*905 FILLER_17_24
*906 FILLER_17_28
*907 FILLER_17_30
*908 FILLER_17_59
*909 FILLER_17_61
*910 FILLER_17_63
*911 FILLER_17_74
*912 FILLER_17_87
*913 FILLER_17_91
*914 FILLER_17_93
*915 FILLER_17_97
*916 FILLER_17_105
*917 FILLER_17_113
*918 FILLER_17_117
*919 FILLER_17_119
*920 FILLER_17_121
*921 FILLER_17_130
*922 FILLER_17_134
*923 FILLER_17_161
*924 FILLER_18_0
*925 FILLER_18_8
*926 FILLER_18_16
*927 FILLER_18_24
*928 FILLER_18_28
*929 FILLER_18_31
*930 FILLER_18_39
*931 FILLER_18_47
*932 FILLER_18_55
*933 FILLER_18_67
*934 FILLER_18_71
*935 FILLER_18_79
*936 FILLER_18_83
*937 FILLER_18_88
*938 FILLER_18_91
*939 FILLER_18_99
*940 FILLER_18_108
*941 FILLER_18_132
*942 FILLER_18_134
*943 FILLER_18_146
*944 FILLER_18_151
*945 FILLER_18_159
*946 FILLER_18_163
*947 FILLER_18_172
*948 FILLER_19_0
*949 FILLER_19_8
*950 FILLER_19_16
*951 FILLER_19_24
*952 FILLER_19_32
*953 FILLER_19_68
*954 FILLER_19_72
*955 FILLER_19_93
*956 FILLER_19_97
*957 FILLER_19_118
*958 FILLER_19_121
*959 FILLER_19_129
*960 FILLER_19_158
*961 FILLER_19_160
*962 FILLER_19_169
*963 FILLER_20_0
*964 FILLER_20_4
*965 FILLER_20_14
*966 FILLER_20_22
*967 FILLER_20_31
*968 FILLER_20_39
*969 FILLER_20_51
*970 FILLER_20_59
*971 FILLER_20_67
*972 FILLER_20_75
*973 FILLER_20_83
*974 FILLER_20_87
*975 FILLER_20_89
*976 FILLER_20_91
*977 FILLER_20_99
*978 FILLER_20_118
*979 FILLER_20_126
*980 FILLER_20_134
*981 FILLER_20_143
*982 FILLER_20_147
*983 FILLER_20_149
*984 FILLER_20_171
*985 FILLER_21_0
*986 FILLER_21_10
*987 FILLER_21_14
*988 FILLER_21_39
*989 FILLER_21_51
*990 FILLER_21_59
*991 FILLER_21_61
*992 FILLER_21_84
*993 FILLER_21_92
*994 FILLER_21_130
*995 FILLER_21_132
*996 FILLER_21_142
*997 FILLER_21_150
*998 FILLER_21_158
*999 FILLER_21_166
*1000 FILLER_21_170
*1001 FILLER_21_172
*1002 FILLER_22_0
*1003 FILLER_22_4
*1004 FILLER_22_31
*1005 FILLER_22_39
*1006 FILLER_22_43
*1007 FILLER_22_45
*1008 FILLER_22_66
*1009 FILLER_22_91
*1010 FILLER_22_99
*1011 FILLER_22_110
*1012 FILLER_22_118
*1013 FILLER_22_126
*1014 FILLER_22_151
*1015 FILLER_22_161
*1016 FILLER_22_169
*1017 FILLER_23_0
*1018 FILLER_23_4
*1019 FILLER_23_29
*1020 FILLER_23_33
*1021 FILLER_23_52
*1022 FILLER_23_61
*1023 FILLER_23_90
*1024 FILLER_23_98
*1025 FILLER_23_102
*1026 FILLER_23_104
*1027 FILLER_23_113
*1028 FILLER_23_117
*1029 FILLER_23_119
*1030 FILLER_23_121
*1031 FILLER_23_127
*1032 FILLER_23_135
*1033 FILLER_23_139
*1034 FILLER_23_160
*1035 FILLER_23_169
*1036 FILLER_24_8
*1037 FILLER_24_16
*1038 FILLER_24_24
*1039 FILLER_24_28
*1040 FILLER_24_31
*1041 FILLER_24_83
*1042 FILLER_24_91
*1043 FILLER_24_100
*1044 FILLER_24_108
*1045 FILLER_24_131
*1046 FILLER_24_135
*1047 FILLER_24_141
*1048 FILLER_24_149
*1049 FILLER_24_151
*1050 FILLER_24_159
*1051 FILLER_24_167
*1052 FILLER_24_171
*1053 FILLER_25_0
*1054 FILLER_25_4
*1055 FILLER_25_13
*1056 FILLER_25_21
*1057 FILLER_25_53
*1058 FILLER_25_57
*1059 FILLER_25_59
*1060 FILLER_25_81
*1061 FILLER_25_85
*1062 FILLER_25_89
*1063 FILLER_25_114
*1064 FILLER_25_118
*1065 FILLER_25_142
*1066 FILLER_25_150
*1067 FILLER_25_158
*1068 FILLER_25_166
*1069 FILLER_25_170
*1070 FILLER_25_172
*1071 FILLER_26_0
*1072 FILLER_26_4
*1073 FILLER_26_31
*1074 FILLER_26_33
*1075 FILLER_26_76
*1076 FILLER_26_78
*1077 FILLER_26_83
*1078 FILLER_26_87
*1079 FILLER_26_89
*1080 FILLER_26_91
*1081 FILLER_26_99
*1082 FILLER_26_107
*1083 FILLER_26_151
*1084 FILLER_26_159
*1085 FILLER_26_167
*1086 FILLER_26_171
*1087 FILLER_27_0
*1088 FILLER_27_4
*1089 FILLER_27_30
*1090 FILLER_27_40
*1091 FILLER_27_44
*1092 FILLER_27_46
*1093 FILLER_27_55
*1094 FILLER_27_59
*1095 FILLER_27_61
*1096 FILLER_27_65
*1097 FILLER_27_116
*1098 FILLER_27_121
*1099 FILLER_27_129
*1100 FILLER_27_137
*1101 FILLER_27_145
*1102 FILLER_27_153
*1103 FILLER_27_161
*1104 FILLER_27_169
*1105 FILLER_28_0
*1106 FILLER_28_16
*1107 FILLER_28_24
*1108 FILLER_28_28
*1109 FILLER_28_31
*1110 FILLER_28_43
*1111 FILLER_28_51
*1112 FILLER_28_59
*1113 FILLER_28_61
*1114 FILLER_28_69
*1115 FILLER_28_77
*1116 FILLER_28_85
*1117 FILLER_28_89
*1118 FILLER_28_91
*1119 FILLER_28_99
*1120 FILLER_28_107
*1121 FILLER_28_115
*1122 FILLER_28_119
*1123 FILLER_28_121
*1124 FILLER_28_129
*1125 FILLER_28_137
*1126 FILLER_28_145
*1127 FILLER_28_149
*1128 FILLER_28_151
*1129 FILLER_28_159
*1130 FILLER_28_167
*1131 FILLER_28_171

*PORTS
clk I
rst_n I
rx_data[0] O
rx_data[1] O
rx_data[2] O
rx_data[3] O
rx_data[4] O
rx_data[5] O
rx_data[6] O
rx_data[7] O
rx_done O
tx_busy O
tx_data[0] I
tx_data[1] I
tx_data[2] I
tx_data[3] I
tx_data[4] I
tx_data[5] I
tx_data[6] I
tx_data[7] I
tx_start I

*D_NET *1 0.0164946
*CONN
*I *358:B_N I *D sky130_fd_sc_hd__or2b_1
*I *366:B_N I *D sky130_fd_sc_hd__nor2b_1
*I *368:A1 I *D sky130_fd_sc_hd__o21ai_0
*I *416:B1 I *D sky130_fd_sc_hd__o21ai_0
*I *353:A2 I *D sky130_fd_sc_hd__o21ai_0
*I *349:B I *D sky130_fd_sc_hd__nand3_1
*I *408:A3 I *D sky130_fd_sc_hd__a32o_1
*I *430:A3 I *D sky130_fd_sc_hd__a32o_1
*I *369:A I *D sky130_fd_sc_hd__and3_1
*I *355:A1 I *D sky130_fd_sc_hd__a22o_2
*I *379:B I *D sky130_fd_sc_hd__and3_1
*I *427:A1 I *D sky130_fd_sc_hd__o221ai_1
*I *418:A1 I *D sky130_fd_sc_hd__a21oi_1
*I *423:B I *D sky130_fd_sc_hd__nand2_1
*I *407:B1 I *D sky130_fd_sc_hd__o21ai_0
*I *352:C I *D sky130_fd_sc_hd__nand3_1
*I *346:B I *D sky130_fd_sc_hd__nand2_1
*I *347:A1 I *D sky130_fd_sc_hd__a22o_1
*I *350:A1 I *D sky130_fd_sc_hd__o21ai_1
*I *344:A2 I *D sky130_fd_sc_hd__a22o_1
*I *343:A I *D sky130_fd_sc_hd__nand2_1
*I *413:A I *D sky130_fd_sc_hd__nand2_1
*I *246:Q O *D sky130_fd_sc_hd__dfrtp_1
*CAP
1 *358:B_N 0.000170708
2 *366:B_N 0
3 *368:A1 5.30058e-05
4 *416:B1 0
5 *353:A2 2.18534e-05
6 *349:B 0
7 *408:A3 0.000213987
8 *430:A3 0
9 *369:A 0
10 *355:A1 0
11 *379:B 0.000647617
12 *427:A1 9.93457e-05
13 *418:A1 0.000356517
14 *423:B 0
15 *407:B1 3.51982e-05
16 *352:C 0
17 *346:B 1.81599e-05
18 *347:A1 0
19 *350:A1 0
20 *344:A2 0
21 *343:A 0.000137227
22 *413:A 8.3759e-05
23 *246:Q 0.000403075
24 *1:204 0.000513644
25 *1:179 0.000970966
26 *1:160 0.000894652
27 *1:137 0.000838831
28 *1:121 3.51982e-05
29 *1:119 0.000391544
30 *1:106 0.000442115
31 *1:97 0.000160516
32 *1:90 0.000249137
33 *1:82 0.000186158
34 *1:78 0.00062664
35 *1:69 0.000522668
36 *1:63 0.000377319
37 *1:43 0.000218796
38 *1:37 0.000420372
39 *1:35 0.000630247
40 *1:31 0.00068935
41 *1:27 0.000435597
42 *1:14 0.00044964
43 *1:10 0.000252318
44 *1:8 0.000586237
45 *343:A *293:D 5.04829e-06
46 *343:A *344:B1 7.22498e-05
47 *346:B *346:A 0
48 *346:B *347:A2 3.01683e-06
49 *353:A2 *344:A1 1.43488e-06
50 *353:A2 *43:20 1.09551e-05
51 *358:B_N *366:A 8.68042e-05
52 *358:B_N *382:A2 3.61024e-05
53 *358:B_N *26:75 1.1957e-05
54 *358:B_N *27:24 0.000317674
55 *358:B_N *147:10 5.29496e-05
56 *358:B_N *158:14 1.22085e-05
57 *368:A1 *281:D 4.30017e-06
58 *379:B *278:D 0.000164843
59 *379:B *355:A2 6.11359e-06
60 *379:B *355:B2 6.49003e-05
61 *379:B *364:A2 0
62 *379:B *379:A 9.18559e-06
63 *379:B *379:C 2.37002e-05
64 *379:B *138:16 8.36586e-06
65 *379:B *245:60 3.05764e-05
66 *407:B1 *407:A1 3.01683e-06
67 *407:B1 *423:A 3.21867e-05
68 *407:B1 *431:B 4.66492e-05
69 *407:B1 *176:8 1.41976e-05
70 *408:A3 *408:A1 4.76161e-06
71 *408:A3 *426:S 7.20028e-05
72 *413:A *414:B 2.41274e-06
73 *418:A1 *284:RESET_B 3.78832e-05
74 *418:A1 *418:A2 5.03022e-05
75 *418:A1 *419:A 7.37562e-05
76 *418:A1 *419:B 2.20702e-05
77 *418:A1 *432:A3 0.000187153
78 *418:A1 *29:10 0.000114659
79 *418:A1 *29:14 0.000161793
80 *427:A1 *241:182 2.46935e-05
81 *427:A1 *241:206 1.67286e-05
82 *1:8 *273:D 1.04731e-05
83 *1:8 *366:A 7.92757e-06
84 *1:8 *415:A2 0.000160047
85 *1:8 *415:B1 0.000114271
86 *1:8 *26:75 0
87 *1:10 *366:A 1.93333e-05
88 *1:14 *364:B1 0
89 *1:14 *368:B1 0
90 *1:14 *412:B1 9.12416e-06
91 *1:14 *414:B 5.43198e-05
92 *1:14 *20:10 0.000113993
93 *1:14 *27:24 5.05959e-05
94 *1:14 *145:10 0
95 *1:27 *364:B1 0
96 *1:27 *368:B1 0
97 *1:31 *368:A2 3.13805e-06
98 *1:31 *182:10 0.000144853
99 *1:35 *416:A1 4.33655e-05
100 *1:35 *416:A2 2.53095e-05
101 *1:35 *43:20 0.000130644
102 *1:35 *182:10 2.05513e-06
103 *1:37 *344:A1 3.07217e-05
104 *1:37 *353:A1 4.35719e-05
105 *1:37 *43:20 2.1603e-05
106 *1:43 *296:RESET_B 0
107 *1:43 *344:A1 0.000104731
108 *1:43 *349:A 0
109 *1:43 *40:10 0
110 *1:43 *200:18 0
111 *1:63 *344:A1 6.50727e-05
112 *1:63 *349:A 6.50586e-05
113 *1:69 *349:A 9.35753e-06
114 *1:69 *349:C 1.07248e-05
115 *1:69 *350:B1 2.4512e-05
116 *1:78 *347:B1 0
117 *1:78 *347:B2 0
118 *1:78 *42:23 0
119 *1:82 *52:18 6.50727e-05
120 *1:90 *347:A2 0
121 *1:90 *369:B 2.65667e-05
122 *1:90 *42:34 7.59852e-05
123 *1:90 *52:18 0.000191136
124 *1:97 *347:A2 1.94236e-05
125 *1:97 *42:34 2.7644e-06
126 *1:97 *42:59 4.23874e-05
127 *1:106 *346:A 6.50727e-05
128 *1:106 *42:59 2.39581e-05
129 *1:119 *346:A 8.59707e-05
130 *1:119 *352:A 2.41483e-05
131 *1:119 *29:14 7.61398e-05
132 *1:119 *79:10 0.000110118
133 *1:119 *182:10 0
134 *1:137 *29:14 1.01585e-05
135 *1:160 *431:A 1.51173e-05
136 *1:160 *431:B 7.41676e-05
137 *1:160 *432:A3 1.03594e-05
138 *1:160 *432:B1 0.000117376
139 *1:160 *182:10 0
140 *1:179 *355:A2 4.76161e-06
141 *1:179 *355:B2 1.00846e-05
142 *1:179 *364:A2 0.000160047
143 *1:204 *369:C 3.93117e-06
144 *1:204 *30:12 9.60216e-05
145 *1:204 *41:39 0
146 *1:204 *241:300 0
*RES
1 *246:Q *1:8 18.8703 
2 *1:8 *1:10 0.578717 
3 *1:10 *1:14 11.315 
4 *1:14 *413:A 15.5817 
5 *1:14 *1:27 7.57775 
6 *1:27 *1:31 7.40275 
7 *1:31 *1:35 7.668 
8 *1:35 *1:37 2.94181 
9 *1:37 *1:43 11.2472 
10 *1:43 *343:A 13.3484 
11 *1:43 *344:A2 9.24915 
12 *1:37 *1:63 4.07513 
13 *1:63 *1:69 9.5469 
14 *1:69 *350:A1 13.7491 
15 *1:69 *1:78 7.23027 
16 *1:78 *1:82 5.2234 
17 *1:82 *1:90 5.93185 
18 *1:90 *347:A1 9.24915 
19 *1:90 *1:97 2.38721 
20 *1:97 *346:B 9.82786 
21 *1:97 *1:106 1.8326 
22 *1:106 *352:C 9.24915 
23 *1:106 *1:119 13.4504 
24 *1:119 *1:121 4.5 
25 *1:121 *407:B1 10.5513 
26 *1:121 *423:B 9.24915 
27 *1:119 *1:137 0.378612 
28 *1:137 *418:A1 24.2654 
29 *1:137 *1:160 14.7146 
30 *1:160 *427:A1 20.9116 
31 *1:160 *1:179 6.48645 
32 *1:179 *379:B 29.1236 
33 *1:179 *355:A1 9.24915 
34 *1:82 *369:A 9.24915 
35 *1:78 *1:204 6.39977 
36 *1:204 *430:A3 13.7491 
37 *1:204 *408:A3 18.823 
38 *1:63 *349:B 9.24915 
39 *1:35 *353:A2 10.2378 
40 *1:31 *416:B1 9.24915 
41 *1:27 *368:A1 10.5271 
42 *1:10 *366:B_N 9.24915 
43 *1:8 *358:B_N 16.1455 
*END

*D_NET *2 0.00281543
*CONN
*I *336:C I *D sky130_fd_sc_hd__nand3_1
*I *341:A I *D sky130_fd_sc_hd__nor2_1
*I *437:A I *D sky130_fd_sc_hd__ha_1
*I *316:D I *D sky130_fd_sc_hd__and4_1
*I *436:A I *D sky130_fd_sc_hd__ha_1
*I *247:Q O *D sky130_fd_sc_hd__dfrtp_1
*CAP
1 *336:C 3.29031e-05
2 *341:A 4.72637e-05
3 *437:A 8.27968e-05
4 *316:D 4.65966e-05
5 *436:A 6.21247e-05
6 *247:Q 0.000182617
7 *2:41 0.000100799
8 *2:14 0.000341035
9 *2:10 0.00039833
10 *2:6 0.000286469
11 *316:D *316:A 9.95542e-06
12 *316:D *316:B 8.72308e-05
13 *316:D *242:12 0.000149296
14 *436:A *316:A 1.43848e-05
15 *436:A *340:B 0.000118166
16 *436:A *242:12 0.000328363
17 *437:A *437:B 2.16355e-05
18 *2:6 *247:D 2.63704e-05
19 *2:10 *336:A 0.000145755
20 *2:10 *341:B 0
21 *2:14 *311:B 3.20674e-05
22 *2:14 *316:A 0.000194976
23 *2:14 *336:A 4.53418e-05
24 *2:14 *7:37 6.09513e-05
25 *2:14 *53:61 0
*RES
1 *247:Q *2:6 12.191 
2 *2:6 *2:10 7.1625 
3 *2:10 *2:14 11.315 
4 *2:14 *436:A 12.7456 
5 *2:14 *316:D 11.6605 
6 *2:10 *437:A 15.5817 
7 *2:6 *2:41 0.578717 
8 *2:41 *341:A 11.1059 
9 *2:41 *336:C 9.97254 
*END

*D_NET *3 0.00665672
*CONN
*I *304:A I *D sky130_fd_sc_hd__nor2_1
*I *372:D_N I *D sky130_fd_sc_hd__nor4bb_1
*I *376:A I *D sky130_fd_sc_hd__nand4_1
*I *317:A I *D sky130_fd_sc_hd__nand4_1
*I *314:B I *D sky130_fd_sc_hd__nand4_1
*I *321:A I *D sky130_fd_sc_hd__xnor2_1
*I *248:Q O *D sky130_fd_sc_hd__dfrtp_1
*CAP
1 *304:A 0.000111256
2 *372:D_N 0.000401419
3 *376:A 1.98947e-05
4 *317:A 1.41178e-05
5 *314:B 0
6 *321:A 0.000120391
7 *248:Q 4.99266e-05
8 *3:62 0.000758297
9 *3:49 0.000379667
10 *3:36 0.000378022
11 *3:23 0.000742746
12 *3:6 0.000663309
13 *304:A *303:A 4.7726e-05
14 *304:A *304:B 7.25714e-05
15 *304:A *305:C 9.12416e-06
16 *304:A *307:A 0
17 *304:A *307:B 4.3116e-06
18 *304:A *309:C 1.07248e-05
19 *317:A *104:6 1.41976e-05
20 *317:A *104:27 0.00011818
21 *317:A *114:8 0.00011818
22 *372:D_N *303:B 0.000242085
23 *372:D_N *311:A 0.000177605
24 *372:D_N *311:C 7.34948e-06
25 *372:D_N *372:B 0.000124942
26 *372:D_N *372:C_N 1.32509e-05
27 *372:D_N *373:C 5.04829e-06
28 *372:D_N *116:10 7.14746e-05
29 *376:A *370:B 6.08467e-05
30 *376:A *370:C_N 2.16355e-05
31 *3:6 *248:RESET_B 3.85336e-06
32 *3:23 *248:RESET_B 3.26186e-05
33 *3:23 *315:B 0.000112099
34 *3:23 *5:22 0.00032328
35 *3:36 *257:D 0
36 *3:36 *314:A 8.01837e-05
37 *3:36 *315:B 5.22654e-06
38 *3:36 *318:B 0.000148144
39 *3:36 *5:22 5.41265e-05
40 *3:36 *114:10 5.77352e-05
41 *3:36 *114:18 0.000278952
42 *3:49 *376:B 0.000164842
43 *3:49 *114:10 2.20021e-05
44 *3:62 *303:A 3.93117e-06
45 *3:62 *304:B 0.000302365
46 *3:62 *370:B 0.000197348
47 *3:62 *370:C_N 4.89392e-05
48 *3:62 *370:D_N 6.27718e-05
49 *3:62 *4:30 0
*RES
1 *248:Q *3:6 9.97254 
2 *3:6 *321:A 20.9116 
3 *3:6 *3:23 14.9536 
4 *3:23 *314:B 13.7491 
5 *3:23 *3:36 8.54931 
6 *3:36 *317:A 15.0271 
7 *3:36 *3:49 7.993 
8 *3:49 *376:A 9.97254 
9 *3:49 *3:62 12.8717 
10 *3:62 *372:D_N 31.1587 
11 *3:62 *304:A 17.19 
*END

*D_NET *4 0.00506695
*CONN
*I *314:A I *D sky130_fd_sc_hd__nand4_1
*I *303:A I *D sky130_fd_sc_hd__nand2_1
*I *372:A I *D sky130_fd_sc_hd__nor4bb_1
*I *375:A I *D sky130_fd_sc_hd__and4_1
*I *318:A I *D sky130_fd_sc_hd__xor2_1
*I *249:Q O *D sky130_fd_sc_hd__dfrtp_1
*CAP
1 *314:A 0.000193957
2 *303:A 0.000314482
3 *372:A 2.62479e-05
4 *375:A 9.96766e-05
5 *318:A 0
6 *249:Q 0.000336091
7 *4:30 0.000532863
8 *4:19 0.000443112
9 *4:10 0.000235057
10 *4:6 0.000613803
11 *303:A *303:B 5.14966e-06
12 *303:A *304:B 1.17376e-05
13 *303:A *305:C 3.5534e-06
14 *303:A *309:A 9.12416e-06
15 *303:A *311:A 3.13687e-05
16 *314:A *257:D 0
17 *314:A *330:B 3.58044e-05
18 *314:A *114:18 9.55447e-05
19 *372:A *311:A 3.31882e-05